***** HSPICE -- A-2008.03 32-BIT (Feb 26 2008) winnt ******
 Input File: my_model.sp
 lic:
 lic: FLEXlm: v8.5b
 lic: USER:   zorroxied            HOSTNAME: zorroxied-VirtualBox
 lic: HOSTID: 0800278de5d7         PID:      11
 lic: Using FLEXlm license file:
 lic: C:\Flexlm\hspice_2007-09.lic
 lic: Checkout 1 hspice
 lic: License/Maintenance for hspice will expire on 31-dec-2020/2007.9
 lic: NODE LOCKED license on hostid 0800278de5d7
 lic:
 Init: hspice initialization file: C:\synopsys\Hspice_A-2008.03\hspice.ini
 init: begin read circuit files,  cpu clock=  3.44E-01
 init: end read circuit files,  cpu clock=  3.68E-01 memory=     14 kb
 init: begin check errors,  cpu clock=  3.68E-01
 init: end check errors,  cpu clock=  5.56E-01 memory=    145 kb
 init: begin setup matrix, pivot=    10 cpu clock=  5.56E-01
       establish matrix -- done,  cpu clock=  5.57E-01 memory=    146 kb
       re-order matrix -- done,  cpu clock=  5.57E-01 memory=    146 kb
 init: end setup matrix,  cpu clock=  5.68E-01 memory=    155 kb
 dcop: begin dcop,  cpu clock=  5.68E-01
 dcop: end dcop,  cpu clock=  5.80E-01 memory=    155 kb  tot_iter=       3
 output: my_model.tr0
 sweep: tran tran0    begin, stop_t=  1.00E-02 #sweeps=**** cpu clock=  5.85E-01
 tran: time= 1.3998E-03 tot_iter=      22 conv_iter=      11 cpu clock= 5.86E-01
 tran: time= 2.3998E-03 tot_iter=      26 conv_iter=      13 cpu clock= 5.86E-01
 tran: time= 3.3998E-03 tot_iter=      30 conv_iter=      15 cpu clock= 5.86E-01
 tran: time= 4.3998E-03 tot_iter=      34 conv_iter=      17 cpu clock= 5.87E-01
 tran: time= 5.3998E-03 tot_iter=      38 conv_iter=      19 cpu clock= 5.87E-01
 tran: time= 6.3998E-03 tot_iter=      42 conv_iter=      21 cpu clock= 5.87E-01
 tran: time= 7.3998E-03 tot_iter=      46 conv_iter=      23 cpu clock= 5.88E-01
 tran: time= 8.3998E-03 tot_iter=      50 conv_iter=      25 cpu clock= 5.88E-01
 tran: time= 9.3998E-03 tot_iter=      54 conv_iter=      27 cpu clock= 5.88E-01
 tran: time= 1.0000E-02 tot_iter=      58 conv_iter=      29 cpu clock= 5.89E-01
 sweep: tran tran0    end,  cpu clock=  5.89E-01 memory=    155 kb
>info:         ***** hspice job concluded
 Init: hspice initialization file: C:\synopsys\Hspice_A-2008.03\hspice.ini
 lic: Release hspice token(s)
